/*--------------------------------*- C++ -*----------------------------------*\
  =========                 |
  \\      /  F ield         | OpenFOAM: The Open Source CFD Toolbox
   \\    /   O peration     | Website:  https://openfoam.org
    \\  /    A nd           | Version:  11
     \\/     M anipulation  |
\*---------------------------------------------------------------------------*/
FoamFile
{
    format      ascii;
    class       volScalarField;
    location    "0";
    object      nut;
}
// * * * * * * * * * * * * * * * * * * * * * * * * * * * * * * * * * * * * * //

dimensions      [0 2 -1 0 0 0 0];

internalField   uniform 5e-7;

boundaryField
{
    front
    {
        type            calculated;
        value           uniform 0;
    }

    "side_wall|bottom|pipe_wall"
    {
        type            nutkRoughWallFunction;
	Ks		uniform 0.0001;
	Cs		uniform 0.5;
        value           uniform 5e-7;
    }

    top
    {
        type            zeroGradient;
    }

    inlet
    {
        type            calculated;
        value           uniform 0;
    }
}

// ***************************caesar_wiratama_2023************************** //
// ************************************************************************* //
