/*--------------------------------*- C++ -*----------------------------------*\
  =========                 |
  \\      /  F ield         | OpenFOAM: The Open Source CFD Toolbox
   \\    /   O peration     | Website:  https://openfoam.org
    \\  /    A nd           | Version:  11
     \\/     M anipulation  |
\*---------------------------------------------------------------------------*/
FoamFile
{
    format      ascii;
    class       volScalarField;
    object      omega;
}
// * * * * * * * * * * * * * * * * * * * * * * * * * * * * * * * * * * * * * //

dimensions      [0 0 -1 0 0 0 0];

internalField   uniform 2;

boundaryField
{
    front
    {
        type            fixedValue;
        value           $internalField;
    }

    "side_wall|bottom|pipe_wall"
    {
        type            omegaWallFunction;
        value           $internalField;
    }

    top
    {
        type            inletOutlet;
        inletValue      $internalField;
        value           $internalField;
    }

    inlet
    {
        type            inletOutlet;
        inletValue      $internalField;
        value           $internalField;
    }
}

// ***************************caesar_wiratama_2023************************** //
// ************************************************************************* //
